MODEL 1
REMARK VINA RESULT:      -5.2      0.000      0.000
REMARK  Name = 
REMARK  2 active torsions:
REMARK  status: ('A' for Active; 'I' for Inactive)
REMARK    1  A    between atoms: C_36  and  N_46
REMARK    2  A    between atoms: C_41  and  O_47
REMARK                            x       y       z     vdW  Elec       q    Type
REMARK                         _______ _______ _______ _____ _____    ______ ____
ROOT
ATOM      1  N   UNK     0     -12.137  24.594  15.865  0.00  0.00    +0.000 N 
ATOM      2  C   UNK     0     -12.645  22.016  14.909  0.00  0.00    +0.000 C 
ATOM      3  C   UNK     0     -13.271  25.386  16.540  0.00  0.00    +0.000 C 
ATOM      4  C   UNK     0     -14.043  21.387  15.053  0.00  0.00    +0.000 C 
ATOM      5  C   UNK     0     -15.178  22.178  15.728  0.00  0.00    +0.000 C 
ATOM      6  C   UNK     0     -16.398  21.240  15.686  0.00  0.00    +0.000 C 
ATOM      7  C   UNK     0     -17.861  21.334  16.159  0.00  0.00    +0.000 C 
ATOM      8  C   UNK     0     -18.709  22.405  16.869  0.00  0.00    +0.000 C 
ATOM      9  C   UNK     0     -20.172  22.499  17.342  0.00  0.00    +0.000 C 
ATOM     10  C   UNK     0     -20.675  23.777  18.039  0.00  0.00    +0.000 C 
ATOM     11  C   UNK     0     -19.716  24.961  18.263  0.00  0.00    +0.000 C 
ATOM     12  O   UNK     0     -18.253  24.867  17.790  0.00  0.00    +0.000 OA
ATOM     13  C   UNK     0     -17.294  26.051  18.014  0.00  0.00    +0.000 C 
ATOM     14  C   UNK     0     -15.831  25.957  17.542  0.00  0.00    +0.000 C 
ATOM     15  C   UNK     0     -14.983  24.885  16.831  0.00  0.00    +0.000 C 
ATOM     16  C   UNK     0     -10.674  24.500  15.392  0.00  0.00    +0.000 C 
ATOM     17  C   UNK     0     -12.639  26.735  16.931  0.00  0.00    +0.000 C 
ATOM     18  O   UNK     0     -15.616  23.537  16.440  0.00  0.00    +0.000 OA
ATOM     19  O   UNK     0     -14.872  27.141  17.766  0.00  0.00    +0.000 OA
ATOM     20  C   UNK     0     -22.138  23.872  18.511  0.00  0.00    +0.000 C 
ATOM     21  O   UNK     0     -16.274  19.843  15.051  0.00  0.00    +0.000 OA
ATOM     22  C   UNK     0     -13.919  19.990  14.417  0.00  0.00    +0.000 C 
ATOM     23  C   UNK     0     -17.358  20.056  15.462  0.00  0.00    +0.000 C 
ATOM     24  C   UNK     0     -16.335  27.235  18.238  0.00  0.00    +0.000 C 
ATOM     25  C   UNK     0     -17.797  27.329  18.711  0.00  0.00    +0.000 C 
ATOM     26  O   UNK     0     -23.496  20.747  17.573  0.00  0.00    +0.000 OA
ATOM     27  O   UNK     0     -19.408  18.390  15.354  0.00  0.00    +0.000 OA
ATOM     28  O   UNK     0     -20.219  26.239  18.960  0.00  0.00    +0.000 OA
ATOM     29  C   UNK     0     -17.534  28.750  19.243  0.00  0.00    +0.000 C 
ATOM     30  C   UNK     0     -24.959  20.841  18.045  0.00  0.00    +0.000 C 
ATOM     31  C   UNK     0     -21.070  16.340  14.966  0.00  0.00    +0.000 C 
ATOM     32  C   UNK     0     -20.807  17.761  15.497  0.00  0.00    +0.000 C 
ATOM     33  O   UNK     0     -21.942  18.553  16.172  0.00  0.00    +0.000 OA
ATOM     34  C   UNK     0     -23.340  17.925  16.316  0.00  0.00    +0.000 C 
ATOM     35  C   UNK     0     -23.603  16.504  15.785  0.00  0.00    +0.000 C 
ATOM     36  C   UNK     0     -22.468  15.711  15.109  0.00  0.00    +0.000 C 
ATOM     37  C   UNK     0     -25.222  19.419  17.514  0.00  0.00    +0.000 C 
ATOM     38  O   UNK     0     -26.094  21.633  18.721  0.00  0.00    +0.000 OA
ATOM     39  C   UNK     0     -27.492  21.003  18.864  0.00  0.00    +0.000 C 
ATOM     40  C   UNK     0     -27.755  19.582  18.332  0.00  0.00    +0.000 C 
ATOM     41  C   UNK     0     -26.620  18.790  17.657  0.00  0.00    +0.000 C 
ATOM     42  O   UNK     0     -20.222  15.269  14.256  0.00  0.00    +0.000 OA
ATOM     43  C   UNK     0     -28.340  22.075  19.574  0.00  0.00    +0.000 C 
ATOM     44  C   UNK     0     -27.841  17.852  17.616  0.00  0.00    +0.000 C 
ATOM     45  C   UNK     0     -24.475  18.717  16.992  0.00  0.00    +0.000 C 
ATOM     48  O   UNK     0     -29.153  18.953  18.476  0.00  0.00    +0.000 OA
ATOM     52  C   UNK     0     -17.750  23.589  17.093  0.00  0.00    +0.000 C 
ENDROOT
BRANCH  36  46
ATOM     46  N   UNK     0     -22.731  14.290  14.577  0.00  0.00    +0.000 N 
ATOM     50  C   UNK     0     -22.563  12.868  15.143  0.00  0.00    +0.000 C 
ATOM     51  C   UNK     0     -23.297  14.091  13.159  0.00  0.00    +0.000 C 
ENDBRANCH  36  46
BRANCH  41  47
ATOM     47  O   UNK     0     -25.772  17.719  16.947  0.00  0.00    +0.000 OA
ATOM     49  C   UNK     0     -26.035  16.297  16.418  0.00  0.00    +0.000 C 
ENDBRANCH  41  47
TORSDOF 2
ENDMDL
MODEL 2
REMARK VINA RESULT:      -4.9     21.295     23.032
REMARK  Name = 
REMARK  2 active torsions:
REMARK  status: ('A' for Active; 'I' for Inactive)
REMARK    1  A    between atoms: C_36  and  N_46
REMARK    2  A    between atoms: C_41  and  O_47
REMARK                            x       y       z     vdW  Elec       q    Type
REMARK                         _______ _______ _______ _____ _____    ______ ____
ROOT
ATOM      1  N   UNK     0     -22.371  38.434  28.912  0.00  0.00    +0.000 N 
ATOM      2  C   UNK     0     -24.325  39.706  27.369  0.00  0.00    +0.000 C 
ATOM      3  C   UNK     0     -22.788  37.320  29.889  0.00  0.00    +0.000 C 
ATOM      4  C   UNK     0     -25.806  39.302  27.489  0.00  0.00    +0.000 C 
ATOM      5  C   UNK     0     -26.223  38.189  28.466  0.00  0.00    +0.000 C 
ATOM      6  C   UNK     0     -27.751  38.071  28.307  0.00  0.00    +0.000 C 
ATOM      7  C   UNK     0     -28.847  37.195  28.941  0.00  0.00    +0.000 C 
ATOM      8  C   UNK     0     -28.870  36.073  29.995  0.00  0.00    +0.000 C 
ATOM      9  C   UNK     0     -29.967  35.196  30.629  0.00  0.00    +0.000 C 
ATOM     10  C   UNK     0     -29.594  34.142  31.688  0.00  0.00    +0.000 C 
ATOM     11  C   UNK     0     -28.125  33.965  32.114  0.00  0.00    +0.000 C 
ATOM     12  O   UNK     0     -27.028  34.842  31.480  0.00  0.00    +0.000 OA
ATOM     13  C   UNK     0     -25.559  34.664  31.906  0.00  0.00    +0.000 C 
ATOM     14  C   UNK     0     -24.462  35.541  31.273  0.00  0.00    +0.000 C 
ATOM     15  C   UNK     0     -24.439  36.663  30.218  0.00  0.00    +0.000 C 
ATOM     16  C   UNK     0     -21.274  39.311  28.279  0.00  0.00    +0.000 C 
ATOM     17  C   UNK     0     -21.477  36.860  30.554  0.00  0.00    +0.000 C 
ATOM     18  O   UNK     0     -25.750  37.122  29.555  0.00  0.00    +0.000 OA
ATOM     19  O   UNK     0     -22.993  35.363  31.699  0.00  0.00    +0.000 OA
ATOM     20  C   UNK     0     -30.690  33.266  32.322  0.00  0.00    +0.000 C 
ATOM     21  O   UNK     0     -28.494  38.984  27.316  0.00  0.00    +0.000 OA
ATOM     22  C   UNK     0     -26.549  40.216  26.496  0.00  0.00    +0.000 C 
ATOM     23  C   UNK     0     -29.220  38.249  27.881  0.00  0.00    +0.000 C 
ATOM     24  C   UNK     0     -24.089  34.487  32.332  0.00  0.00    +0.000 C 
ATOM     25  C   UNK     0     -25.186  33.610  32.966  0.00  0.00    +0.000 C 
ATOM     26  O   UNK     0     -33.643  34.392  30.740  0.00  0.00    +0.000 OA
ATOM     27  O   UNK     0     -31.841  38.105  27.555  0.00  0.00    +0.000 OA
ATOM     28  O   UNK     0     -27.752  32.911  33.173  0.00  0.00    +0.000 OA
ATOM     29  C   UNK     0     -24.122  32.900  33.823  0.00  0.00    +0.000 C 
ATOM     30  C   UNK     0     -34.740  33.515  31.374  0.00  0.00    +0.000 C 
ATOM     31  C   UNK     0     -34.386  38.412  26.818  0.00  0.00    +0.000 C 
ATOM     32  C   UNK     0     -33.322  37.701  27.675  0.00  0.00    +0.000 C 
ATOM     33  O   UNK     0     -33.739  36.588  28.653  0.00  0.00    +0.000 OA
ATOM     34  C   UNK     0     -35.220  36.183  28.773  0.00  0.00    +0.000 C 
ATOM     35  C   UNK     0     -36.284  36.894  27.916  0.00  0.00    +0.000 C 
ATOM     36  C   UNK     0     -35.866  38.009  26.938  0.00  0.00    +0.000 C 
ATOM     37  C   UNK     0     -35.803  34.226  30.516  0.00  0.00    +0.000 C 
ATOM     38  O   UNK     0     -35.158  32.401  32.351  0.00  0.00    +0.000 OA
ATOM     39  C   UNK     0     -36.638  31.998  32.471  0.00  0.00    +0.000 C 
ATOM     40  C   UNK     0     -37.702  32.708  31.613  0.00  0.00    +0.000 C 
ATOM     41  C   UNK     0     -37.285  33.822  30.636  0.00  0.00    +0.000 C 
ATOM     42  O   UNK     0     -34.362  39.534  25.764  0.00  0.00    +0.000 OA
ATOM     43  C   UNK     0     -36.662  30.875  33.525  0.00  0.00    +0.000 C 
ATOM     44  C   UNK     0     -38.812  33.705  30.478  0.00  0.00    +0.000 C 
ATOM     45  C   UNK     0     -35.638  35.069  29.751  0.00  0.00    +0.000 C 
ATOM     48  O   UNK     0     -39.184  32.304  31.733  0.00  0.00    +0.000 OA
ATOM     52  C   UNK     0     -27.401  35.895  30.421  0.00  0.00    +0.000 C 
ENDROOT
BRANCH  36  46
ATOM     46  N   UNK     0     -36.930  38.720  26.080  0.00  0.00    +0.000 N 
ATOM     50  C   UNK     0     -37.474  38.539  24.651  0.00  0.00    +0.000 C 
ATOM     51  C   UNK     0     -37.716  39.911  26.659  0.00  0.00    +0.000 C 
ENDBRANCH  36  46
BRANCH  41  47
ATOM     47  O   UNK     0     -37.262  34.945  29.582  0.00  0.00    +0.000 OA
ATOM     49  C   UNK     0     -38.321  35.633  28.701  0.00  0.00    +0.000 C 
ENDBRANCH  41  47
TORSDOF 2
ENDMDL
MODEL 3
REMARK VINA RESULT:      -4.9     54.091     55.797
REMARK  Name = 
REMARK  2 active torsions:
REMARK  status: ('A' for Active; 'I' for Inactive)
REMARK    1  A    between atoms: C_36  and  N_46
REMARK    2  A    between atoms: C_41  and  O_47
REMARK                            x       y       z     vdW  Elec       q    Type
REMARK                         _______ _______ _______ _____ _____    ______ ____
ROOT
ATOM      1  N   UNK     0     -17.771  40.497 -31.562  0.00  0.00    +0.000 N 
ATOM      2  C   UNK     0     -15.717  39.043 -32.781  0.00  0.00    +0.000 C 
ATOM      3  C   UNK     0     -19.236  40.152 -31.887  0.00  0.00    +0.000 C 
ATOM      4  C   UNK     0     -16.039  37.906 -33.770  0.00  0.00    +0.000 C 
ATOM      5  C   UNK     0     -17.504  37.561 -34.095  0.00  0.00    +0.000 C 
ATOM      6  C   UNK     0     -17.425  36.397 -35.100  0.00  0.00    +0.000 C 
ATOM      7  C   UNK     0     -18.457  35.542 -35.858  0.00  0.00    +0.000 C 
ATOM      8  C   UNK     0     -19.995  35.496 -35.926  0.00  0.00    +0.000 C 
ATOM      9  C   UNK     0     -21.027  34.641 -36.684  0.00  0.00    +0.000 C 
ATOM     10  C   UNK     0     -22.533  34.898 -36.489  0.00  0.00    +0.000 C 
ATOM     11  C   UNK     0     -23.006  36.011 -35.536  0.00  0.00    +0.000 C 
ATOM     12  O   UNK     0     -21.975  36.866 -34.778  0.00  0.00    +0.000 OA
ATOM     13  C   UNK     0     -22.449  37.979 -33.824  0.00  0.00    +0.000 C 
ATOM     14  C   UNK     0     -21.417  38.834 -33.066  0.00  0.00    +0.000 C 
ATOM     15  C   UNK     0     -19.879  38.880 -32.998  0.00  0.00    +0.000 C 
ATOM     16  C   UNK     0     -16.739  41.352 -30.803  0.00  0.00    +0.000 C 
ATOM     17  C   UNK     0     -20.073  41.137 -31.051  0.00  0.00    +0.000 C 
ATOM     18  O   UNK     0     -19.043  37.894 -33.835  0.00  0.00    +0.000 OA
ATOM     19  O   UNK     0     -21.891  39.947 -32.113  0.00  0.00    +0.000 OA
ATOM     20  C   UNK     0     -23.565  34.043 -37.248  0.00  0.00    +0.000 C 
ATOM     21  O   UNK     0     -16.055  35.854 -35.544  0.00  0.00    +0.000 OA
ATOM     22  C   UNK     0     -14.668  37.364 -34.213  0.00  0.00    +0.000 C 
ATOM     23  C   UNK     0     -16.951  35.284 -36.053  0.00  0.00    +0.000 C 
ATOM     24  C   UNK     0     -22.923  39.092 -32.871  0.00  0.00    +0.000 C 
ATOM     25  C   UNK     0     -23.955  38.236 -33.629  0.00  0.00    +0.000 C 
ATOM     26  O   UNK     0     -21.555  31.825 -39.128  0.00  0.00    +0.000 OA
ATOM     27  O   UNK     0     -16.737  33.288 -37.775  0.00  0.00    +0.000 OA
ATOM     28  O   UNK     0     -24.512  36.268 -35.341  0.00  0.00    +0.000 OA
ATOM     29  C   UNK     0     -25.098  39.027 -32.967  0.00  0.00    +0.000 C 
ATOM     30  C   UNK     0     -22.587  30.970 -39.886  0.00  0.00    +0.000 C 
ATOM     31  C   UNK     0     -15.916  31.361 -39.426  0.00  0.00    +0.000 C 
ATOM     32  C   UNK     0     -17.059  32.152 -38.763  0.00  0.00    +0.000 C 
ATOM     33  O   UNK     0     -18.524  31.807 -39.088  0.00  0.00    +0.000 OA
ATOM     34  C   UNK     0     -18.847  30.671 -40.076  0.00  0.00    +0.000 C 
ATOM     35  C   UNK     0     -17.704  29.880 -40.739  0.00  0.00    +0.000 C 
ATOM     36  C   UNK     0     -16.238  30.225 -40.414  0.00  0.00    +0.000 C 
ATOM     37  C   UNK     0     -21.444  30.179 -40.549  0.00  0.00    +0.000 C 
ATOM     38  O   UNK     0     -24.052  30.625 -40.212  0.00  0.00    +0.000 OA
ATOM     39  C   UNK     0     -24.374  29.489 -41.200  0.00  0.00    +0.000 C 
ATOM     40  C   UNK     0     -23.231  28.698 -41.863  0.00  0.00    +0.000 C 
ATOM     41  C   UNK     0     -21.766  29.042 -41.538  0.00  0.00    +0.000 C 
ATOM     42  O   UNK     0     -14.379  31.407 -39.358  0.00  0.00    +0.000 OA
ATOM     43  C   UNK     0     -25.912  29.443 -41.267  0.00  0.00    +0.000 C 
ATOM     44  C   UNK     0     -21.687  27.878 -42.543  0.00  0.00    +0.000 C 
ATOM     45  C   UNK     0     -20.312  30.325 -40.402  0.00  0.00    +0.000 C 
ATOM     48  O   UNK     0     -23.553  27.561 -42.851  0.00  0.00    +0.000 OA
ATOM     52  C   UNK     0     -20.469  36.609 -34.972  0.00  0.00    +0.000 C 
ENDROOT
BRANCH  36  46
ATOM     46  N   UNK     0     -15.095  29.434 -41.077  0.00  0.00    +0.000 N 
ATOM     50  C   UNK     0     -14.255  28.204 -40.688  0.00  0.00    +0.000 C 
ATOM     51  C   UNK     0     -14.563  29.860 -42.458  0.00  0.00    +0.000 C 
ENDBRANCH  36  46
BRANCH  41  47
ATOM     47  O   UNK     0     -20.228  29.088 -41.470  0.00  0.00    +0.000 OA
ATOM     49  C   UNK     0     -19.085  28.289 -42.124  0.00  0.00    +0.000 C 
ENDBRANCH  41  47
TORSDOF 2
ENDMDL
MODEL 4
REMARK VINA RESULT:      -4.7     33.615     36.683
REMARK  Name = 
REMARK  2 active torsions:
REMARK  status: ('A' for Active; 'I' for Inactive)
REMARK    1  A    between atoms: C_36  and  N_46
REMARK    2  A    between atoms: C_41  and  O_47
REMARK                            x       y       z     vdW  Elec       q    Type
REMARK                         _______ _______ _______ _____ _____    ______ ____
ROOT
ATOM      1  N   UNK     0     -40.812  40.832  -4.310  0.00  0.00    +0.000 N 
ATOM      2  C   UNK     0     -40.432  38.543  -2.750  0.00  0.00    +0.000 C 
ATOM      3  C   UNK     0     -41.844  40.805  -5.452  0.00  0.00    +0.000 C 
ATOM      4  C   UNK     0     -41.244  37.263  -3.024  0.00  0.00    +0.000 C 
ATOM      5  C   UNK     0     -42.276  37.235  -4.166  0.00  0.00    +0.000 C 
ATOM      6  C   UNK     0     -42.873  35.816  -4.130  0.00  0.00    +0.000 C 
ATOM      7  C   UNK     0     -43.937  35.061  -4.947  0.00  0.00    +0.000 C 
ATOM      8  C   UNK     0     -44.846  35.413  -6.140  0.00  0.00    +0.000 C 
ATOM      9  C   UNK     0     -45.911  34.658  -6.957  0.00  0.00    +0.000 C 
ATOM     10  C   UNK     0     -46.635  35.365  -8.118  0.00  0.00    +0.000 C 
ATOM     11  C   UNK     0     -46.294  36.827  -8.461  0.00  0.00    +0.000 C 
ATOM     12  O   UNK     0     -45.229  37.582  -7.644  0.00  0.00    +0.000 OA
ATOM     13  C   UNK     0     -44.888  39.044  -7.987  0.00  0.00    +0.000 C 
ATOM     14  C   UNK     0     -43.824  39.799  -7.170  0.00  0.00    +0.000 C 
ATOM     15  C   UNK     0     -42.915  39.447  -5.978  0.00  0.00    +0.000 C 
ATOM     16  C   UNK     0     -39.747  41.587  -3.493  0.00  0.00    +0.000 C 
ATOM     17  C   UNK     0     -41.782  42.210  -6.080  0.00  0.00    +0.000 C 
ATOM     18  O   UNK     0     -42.977  38.042  -5.351  0.00  0.00    +0.000 OA
ATOM     19  O   UNK     0     -43.483  41.261  -7.514  0.00  0.00    +0.000 OA
ATOM     20  C   UNK     0     -47.699  34.610  -8.936  0.00  0.00    +0.000 C 
ATOM     21  O   UNK     0     -42.384  34.802  -3.080  0.00  0.00    +0.000 OA
ATOM     22  C   UNK     0     -40.755  36.249  -1.974  0.00  0.00    +0.000 C 
ATOM     23  C   UNK     0     -43.213  34.354  -3.786  0.00  0.00    +0.000 C 
ATOM     24  C   UNK     0     -44.548  40.506  -8.331  0.00  0.00    +0.000 C 
ATOM     25  C   UNK     0     -45.612  39.751  -9.149  0.00  0.00    +0.000 C 
ATOM     26  O   UNK     0     -47.766  31.415  -7.426  0.00  0.00    +0.000 OA
ATOM     27  O   UNK     0     -44.190  31.900  -3.663  0.00  0.00    +0.000 OA
ATOM     28  O   UNK     0     -47.018  37.534  -9.622  0.00  0.00    +0.000 OA
ATOM     29  C   UNK     0     -45.833  41.004 -10.017  0.00  0.00    +0.000 C 
ATOM     30  C   UNK     0     -48.831  30.660  -8.244  0.00  0.00    +0.000 C 
ATOM     31  C   UNK     0     -44.781  29.367  -3.068  0.00  0.00    +0.000 C 
ATOM     32  C   UNK     0     -45.002  30.619  -3.937  0.00  0.00    +0.000 C 
ATOM     33  O   UNK     0     -46.034  30.592  -5.079  0.00  0.00    +0.000 OA
ATOM     34  C   UNK     0     -46.846  29.313  -5.353  0.00  0.00    +0.000 C 
ATOM     35  C   UNK     0     -46.625  28.061  -4.485  0.00  0.00    +0.000 C 
ATOM     36  C   UNK     0     -45.592  28.087  -3.342  0.00  0.00    +0.000 C 
ATOM     37  C   UNK     0     -48.610  29.408  -7.375  0.00  0.00    +0.000 C 
ATOM     38  O   UNK     0     -49.864  30.633  -9.386  0.00  0.00    +0.000 OA
ATOM     39  C   UNK     0     -50.675  29.353  -9.659  0.00  0.00    +0.000 C 
ATOM     40  C   UNK     0     -50.453  28.101  -8.791  0.00  0.00    +0.000 C 
ATOM     41  C   UNK     0     -49.421  28.128  -7.649  0.00  0.00    +0.000 C 
ATOM     42  O   UNK     0     -43.872  29.016  -1.876  0.00  0.00    +0.000 OA
ATOM     43  C   UNK     0     -51.584  29.705 -10.852  0.00  0.00    +0.000 C 
ATOM     44  C   UNK     0     -50.018  26.709  -7.613  0.00  0.00    +0.000 C 
ATOM     45  C   UNK     0     -47.879  29.285  -6.496  0.00  0.00    +0.000 C 
ATOM     48  O   UNK     0     -51.265  26.821  -9.065  0.00  0.00    +0.000 OA
ATOM     52  C   UNK     0     -44.506  36.875  -6.483  0.00  0.00    +0.000 C 
ENDROOT
BRANCH  36  46
ATOM     46  N   UNK     0     -45.371  26.835  -2.473  0.00  0.00    +0.000 N 
ATOM     50  C   UNK     0     -45.915  26.339  -1.121  0.00  0.00    +0.000 C 
ATOM     51  C   UNK     0     -44.402  25.734  -2.943  0.00  0.00    +0.000 C 
ENDBRANCH  36  46
BRANCH  41  47
ATOM     47  O   UNK     0     -48.512  27.776  -6.457  0.00  0.00    +0.000 OA
ATOM     49  C   UNK     0     -48.372  26.567  -5.514  0.00  0.00    +0.000 C 
ENDBRANCH  41  47
TORSDOF 2
ENDMDL
MODEL 5
REMARK VINA RESULT:      -4.4     16.242     22.056
REMARK  Name = 
REMARK  2 active torsions:
REMARK  status: ('A' for Active; 'I' for Inactive)
REMARK    1  A    between atoms: C_36  and  N_46
REMARK    2  A    between atoms: C_41  and  O_47
REMARK                            x       y       z     vdW  Elec       q    Type
REMARK                         _______ _______ _______ _____ _____    ______ ____
ROOT
ATOM      1  N   UNK     0     -13.358   7.192   1.404  0.00  0.00    +0.000 N 
ATOM      2  C   UNK     0     -15.380   8.923   2.261  0.00  0.00    +0.000 C 
ATOM      3  C   UNK     0     -12.108   7.772   0.718  0.00  0.00    +0.000 C 
ATOM      4  C   UNK     0     -15.252  10.444   2.053  0.00  0.00    +0.000 C 
ATOM      5  C   UNK     0     -14.002  11.024   1.367  0.00  0.00    +0.000 C 
ATOM      6  C   UNK     0     -14.233  12.547   1.340  0.00  0.00    +0.000 C 
ATOM      7  C   UNK     0     -13.438  13.760   0.824  0.00  0.00    +0.000 C 
ATOM      8  C   UNK     0     -12.081  13.953   0.121  0.00  0.00    +0.000 C 
ATOM      9  C   UNK     0     -11.285  15.167  -0.395  0.00  0.00    +0.000 C 
ATOM     10  C   UNK     0      -9.915  14.959  -1.067  0.00  0.00    +0.000 C 
ATOM     11  C   UNK     0      -9.341  13.539  -1.223  0.00  0.00    +0.000 C 
ATOM     12  O   UNK     0     -10.137  12.326  -0.707  0.00  0.00    +0.000 OA
ATOM     13  C   UNK     0      -9.562  10.906  -0.863  0.00  0.00    +0.000 C 
ATOM     14  C   UNK     0     -10.358   9.692  -0.347  0.00  0.00    +0.000 C 
ATOM     15  C   UNK     0     -11.714   9.499   0.356  0.00  0.00    +0.000 C 
ATOM     16  C   UNK     0     -14.154   5.979   1.920  0.00  0.00    +0.000 C 
ATOM     17  C   UNK     0     -11.229   6.551   0.389  0.00  0.00    +0.000 C 
ATOM     18  O   UNK     0     -12.592  10.720   0.684  0.00  0.00    +0.000 OA
ATOM     19  O   UNK     0      -9.783   8.272  -0.503  0.00  0.00    +0.000 OA
ATOM     20  C   UNK     0      -9.119  16.173  -1.584  0.00  0.00    +0.000 C 
ATOM     21  O   UNK     0     -15.523  13.140   1.935  0.00  0.00    +0.000 OA
ATOM     22  C   UNK     0     -16.542  11.037   2.648  0.00  0.00    +0.000 C 
ATOM     23  C   UNK     0     -14.808  13.967   1.496  0.00  0.00    +0.000 C 
ATOM     24  C   UNK     0      -8.988   9.485  -1.019  0.00  0.00    +0.000 C 
ATOM     25  C   UNK     0      -8.192  10.698  -1.535  0.00  0.00    +0.000 C 
ATOM     26  O   UNK     0     -11.208  18.910  -0.788  0.00  0.00    +0.000 OA
ATOM     27  O   UNK     0     -15.274  16.570   1.486  0.00  0.00    +0.000 OA
ATOM     28  O   UNK     0      -7.971  13.332  -1.895  0.00  0.00    +0.000 OA
ATOM     29  C   UNK     0      -7.069   9.759  -2.013  0.00  0.00    +0.000 C 
ATOM     30  C   UNK     0     -10.412  20.124  -1.304  0.00  0.00    +0.000 C 
ATOM     31  C   UNK     0     -16.269  19.030   1.756  0.00  0.00    +0.000 C 
ATOM     32  C   UNK     0     -15.146  18.091   1.278  0.00  0.00    +0.000 C 
ATOM     33  O   UNK     0     -13.896  18.671   0.592  0.00  0.00    +0.000 OA
ATOM     34  C   UNK     0     -13.768  20.191   0.384  0.00  0.00    +0.000 C 
ATOM     35  C   UNK     0     -14.890  21.131   0.862  0.00  0.00    +0.000 C 
ATOM     36  C   UNK     0     -16.142  20.550   1.548  0.00  0.00    +0.000 C 
ATOM     37  C   UNK     0     -11.535  21.063  -0.826  0.00  0.00    +0.000 C 
ATOM     38  O   UNK     0      -9.162  20.705  -1.990  0.00  0.00    +0.000 OA
ATOM     39  C   UNK     0      -9.034  22.225  -2.198  0.00  0.00    +0.000 C 
ATOM     40  C   UNK     0     -10.157  23.165  -1.720  0.00  0.00    +0.000 C 
ATOM     41  C   UNK     0     -11.407  22.584  -1.034  0.00  0.00    +0.000 C 
ATOM     42  O   UNK     0     -17.625  18.836   2.459  0.00  0.00    +0.000 OA
ATOM     43  C   UNK     0      -7.678  22.418  -2.901  0.00  0.00    +0.000 C 
ATOM     44  C   UNK     0     -11.638  24.106  -1.061  0.00  0.00    +0.000 C 
ATOM     45  C   UNK     0     -12.517  20.773  -0.303  0.00  0.00    +0.000 C 
ATOM     48  O   UNK     0     -10.029  24.685  -1.928  0.00  0.00    +0.000 OA
ATOM     52  C   UNK     0     -11.506  12.533  -0.035  0.00  0.00    +0.000 C 
ENDROOT
BRANCH  36  46
ATOM     46  N   UNK     0     -17.264  21.490   2.026  0.00  0.00    +0.000 N 
ATOM     50  C   UNK     0     -17.617  22.173   3.359  0.00  0.00    +0.000 C 
ATOM     51  C   UNK     0     -18.365  21.936   1.045  0.00  0.00    +0.000 C 
ENDBRANCH  36  46
BRANCH  41  47
ATOM     47  O   UNK     0     -12.764  22.391  -0.331  0.00  0.00    +0.000 OA
ATOM     49  C   UNK     0     -13.893  23.329   0.134  0.00  0.00    +0.000 C 
ENDBRANCH  41  47
TORSDOF 2
ENDMDL
MODEL 6
REMARK VINA RESULT:      -4.3     24.410     29.637
REMARK  Name = 
REMARK  2 active torsions:
REMARK  status: ('A' for Active; 'I' for Inactive)
REMARK    1  A    between atoms: C_36  and  N_46
REMARK    2  A    between atoms: C_41  and  O_47
REMARK                            x       y       z     vdW  Elec       q    Type
REMARK                         _______ _______ _______ _____ _____    ______ ____
ROOT
ATOM      1  N   UNK     0      -7.884   9.625   0.591  0.00  0.00    +0.000 N 
ATOM      2  C   UNK     0      -6.056   8.138  -0.915  0.00  0.00    +0.000 C 
ATOM      3  C   UNK     0      -9.286   9.049   0.859  0.00  0.00    +0.000 C 
ATOM      4  C   UNK     0      -6.441   6.756  -1.475  0.00  0.00    +0.000 C 
ATOM      5  C   UNK     0      -7.844   6.180  -1.207  0.00  0.00    +0.000 C 
ATOM      6  C   UNK     0      -7.853   4.811  -1.912  0.00  0.00    +0.000 C 
ATOM      7  C   UNK     0      -8.885   3.680  -2.081  0.00  0.00    +0.000 C 
ATOM      8  C   UNK     0     -10.335   3.451  -1.615  0.00  0.00    +0.000 C 
ATOM      9  C   UNK     0     -11.367   2.320  -1.783  0.00  0.00    +0.000 C 
ATOM     10  C   UNK     0     -12.765   2.453  -1.151  0.00  0.00    +0.000 C 
ATOM     11  C   UNK     0     -13.131   3.716  -0.350  0.00  0.00    +0.000 C 
ATOM     12  O   UNK     0     -12.099   4.847  -0.181  0.00  0.00    +0.000 OA
ATOM     13  C   UNK     0     -12.465   6.110   0.620  0.00  0.00    +0.000 C 
ATOM     14  C   UNK     0     -11.433   7.241   0.789  0.00  0.00    +0.000 C 
ATOM     15  C   UNK     0      -9.983   7.470   0.323  0.00  0.00    +0.000 C 
ATOM     16  C   UNK     0      -6.852  10.755   0.760  0.00  0.00    +0.000 C 
ATOM     17  C   UNK     0     -10.003  10.120   1.702  0.00  0.00    +0.000 C 
ATOM     18  O   UNK     0      -9.267   6.399  -0.520  0.00  0.00    +0.000 OA
ATOM     19  O   UNK     0     -11.799   8.504   1.590  0.00  0.00    +0.000 OA
ATOM     20  C   UNK     0     -13.797   1.323  -1.320  0.00  0.00    +0.000 C 
ATOM     21  O   UNK     0      -6.604   4.325  -2.668  0.00  0.00    +0.000 OA
ATOM     22  C   UNK     0      -5.191   6.270  -2.231  0.00  0.00    +0.000 C 
ATOM     23  C   UNK     0      -7.487   3.547  -2.713  0.00  0.00    +0.000 C 
ATOM     24  C   UNK     0     -12.831   7.373   1.422  0.00  0.00    +0.000 C 
ATOM     25  C   UNK     0     -13.863   6.243   1.253  0.00  0.00    +0.000 C 
ATOM     26  O   UNK     0     -12.066  -1.073  -3.257  0.00  0.00    +0.000 OA
ATOM     27  O   UNK     0      -7.430   1.209  -3.947  0.00  0.00    +0.000 OA
ATOM     28  O   UNK     0     -14.529   3.849   0.283  0.00  0.00    +0.000 OA
ATOM     29  C   UNK     0     -14.881   7.049   2.081  0.00  0.00    +0.000 C 
ATOM     30  C   UNK     0     -13.099  -2.204  -3.426  0.00  0.00    +0.000 C 
ATOM     31  C   UNK     0      -6.796  -0.979  -5.335  0.00  0.00    +0.000 C 
ATOM     32  C   UNK     0      -7.815  -0.173  -4.507  0.00  0.00    +0.000 C 
ATOM     33  O   UNK     0      -9.217  -0.749  -4.239  0.00  0.00    +0.000 OA
ATOM     34  C   UNK     0      -9.603  -2.131  -4.798  0.00  0.00    +0.000 C 
ATOM     35  C   UNK     0      -8.584  -2.937  -5.626  0.00  0.00    +0.000 C 
ATOM     36  C   UNK     0      -7.181  -2.361  -5.894  0.00  0.00    +0.000 C 
ATOM     37  C   UNK     0     -12.080  -3.010  -4.254  0.00  0.00    +0.000 C 
ATOM     38  O   UNK     0     -14.502  -2.780  -3.158  0.00  0.00    +0.000 OA
ATOM     39  C   UNK     0     -14.886  -4.161  -3.718  0.00  0.00    +0.000 C 
ATOM     40  C   UNK     0     -13.868  -4.967  -4.546  0.00  0.00    +0.000 C 
ATOM     41  C   UNK     0     -12.465  -4.392  -4.814  0.00  0.00    +0.000 C 
ATOM     42  O   UNK     0      -5.347  -0.749  -5.800  0.00  0.00    +0.000 OA
ATOM     43  C   UNK     0     -16.336  -4.391  -3.252  0.00  0.00    +0.000 C 
ATOM     44  C   UNK     0     -12.475  -5.761  -5.519  0.00  0.00    +0.000 C 
ATOM     45  C   UNK     0     -11.006  -2.707  -4.531  0.00  0.00    +0.000 C 
ATOM     48  O   UNK     0     -14.252  -6.350  -5.106  0.00  0.00    +0.000 OA
ATOM     52  C   UNK     0     -10.701   4.714  -0.813  0.00  0.00    +0.000 C 
ENDROOT
BRANCH  36  46
ATOM     46  N   UNK     0      -6.162  -3.167  -6.722  0.00  0.00    +0.000 N 
ATOM     50  C   UNK     0      -5.009  -4.131  -6.389  0.00  0.00    +0.000 C 
ATOM     51  C   UNK     0      -6.185  -3.087  -8.260  0.00  0.00    +0.000 C 
ENDBRANCH  36  46
BRANCH  41  47
ATOM     47  O   UNK     0     -11.015  -4.162  -5.280  0.00  0.00    +0.000 OA
ATOM     49  C   UNK     0     -10.014  -4.945  -6.149  0.00  0.00    +0.000 C 
ENDBRANCH  41  47
TORSDOF 2
ENDMDL
MODEL 7
REMARK VINA RESULT:      -4.3     16.301     19.531
REMARK  Name = 
REMARK  2 active torsions:
REMARK  status: ('A' for Active; 'I' for Inactive)
REMARK    1  A    between atoms: C_36  and  N_46
REMARK    2  A    between atoms: C_41  and  O_47
REMARK                            x       y       z     vdW  Elec       q    Type
REMARK                         _______ _______ _______ _____ _____    ______ ____
ROOT
ATOM      1  N   UNK     0      -7.949   8.523   1.180  0.00  0.00    +0.000 N 
ATOM      2  C   UNK     0     -10.343   7.644   2.326  0.00  0.00    +0.000 C 
ATOM      3  C   UNK     0      -7.897   9.909   0.512  0.00  0.00    +0.000 C 
ATOM      4  C   UNK     0     -11.602   8.532   2.293  0.00  0.00    +0.000 C 
ATOM      5  C   UNK     0     -11.549   9.918   1.625  0.00  0.00    +0.000 C 
ATOM      6  C   UNK     0     -12.968  10.493   1.789  0.00  0.00    +0.000 C 
ATOM      7  C   UNK     0     -13.665  11.806   1.385  0.00  0.00    +0.000 C 
ATOM      8  C   UNK     0     -13.230  13.087   0.649  0.00  0.00    +0.000 C 
ATOM      9  C   UNK     0     -13.926  14.400   0.245  0.00  0.00    +0.000 C 
ATOM     10  C   UNK     0     -13.139  15.489  -0.509  0.00  0.00    +0.000 C 
ATOM     11  C   UNK     0     -11.656  15.264  -0.857  0.00  0.00    +0.000 C 
ATOM     12  O   UNK     0     -10.960  13.952  -0.452  0.00  0.00    +0.000 OA
ATOM     13  C   UNK     0      -9.477  13.728  -0.801  0.00  0.00    +0.000 C 
ATOM     14  C   UNK     0      -8.780  12.415  -0.397  0.00  0.00    +0.000 C 
ATOM     15  C   UNK     0      -9.215  11.134   0.339  0.00  0.00    +0.000 C 
ATOM     16  C   UNK     0      -7.253   7.211   1.584  0.00  0.00    +0.000 C 
ATOM     17  C   UNK     0      -6.450  10.052   0.002  0.00  0.00    +0.000 C 
ATOM     18  O   UNK     0     -10.661  10.992   0.848  0.00  0.00    +0.000 OA
ATOM     19  O   UNK     0      -7.297  12.191  -0.745  0.00  0.00    +0.000 OA
ATOM     20  C   UNK     0     -13.835  16.801  -0.913  0.00  0.00    +0.000 C 
ATOM     21  O   UNK     0     -14.054   9.672   2.508  0.00  0.00    +0.000 OA
ATOM     22  C   UNK     0     -12.687   7.710   3.012  0.00  0.00    +0.000 C 
ATOM     23  C   UNK     0     -14.452  10.717   2.138  0.00  0.00    +0.000 C 
ATOM     24  C   UNK     0      -7.993  13.504  -1.150  0.00  0.00    +0.000 C 
ATOM     25  C   UNK     0      -8.689  14.816  -1.554  0.00  0.00    +0.000 C 
ATOM     26  O   UNK     0     -17.130  16.378   0.295  0.00  0.00    +0.000 OA
ATOM     27  O   UNK     0     -16.910  11.638   2.457  0.00  0.00    +0.000 OA
ATOM     28  O   UNK     0     -10.869  16.353  -1.610  0.00  0.00    +0.000 OA
ATOM     29  C   UNK     0      -7.379  15.316  -2.190  0.00  0.00    +0.000 C 
ATOM     30  C   UNK     0     -17.826  17.690  -0.110  0.00  0.00    +0.000 C 
ATOM     31  C   UNK     0     -19.479  12.027   3.060  0.00  0.00    +0.000 C 
ATOM     32  C   UNK     0     -18.168  12.526   2.424  0.00  0.00    +0.000 C 
ATOM     33  O   UNK     0     -18.116  13.912   1.756  0.00  0.00    +0.000 OA
ATOM     34  C   UNK     0     -19.373  14.800   1.723  0.00  0.00    +0.000 C 
ATOM     35  C   UNK     0     -20.684  14.300   2.359  0.00  0.00    +0.000 C 
ATOM     36  C   UNK     0     -20.737  12.913   3.028  0.00  0.00    +0.000 C 
ATOM     37  C   UNK     0     -19.137  17.191   0.526  0.00  0.00    +0.000 C 
ATOM     38  O   UNK     0     -17.774  19.077  -0.778  0.00  0.00    +0.000 OA
ATOM     39  C   UNK     0     -19.032  19.964  -0.810  0.00  0.00    +0.000 C 
ATOM     40  C   UNK     0     -20.342  19.465  -0.174  0.00  0.00    +0.000 C 
ATOM     41  C   UNK     0     -20.395  18.079   0.494  0.00  0.00    +0.000 C 
ATOM     42  O   UNK     0     -19.913  10.746   3.795  0.00  0.00    +0.000 OA
ATOM     43  C   UNK     0     -18.597  21.245  -1.546  0.00  0.00    +0.000 C 
ATOM     44  C   UNK     0     -21.814  18.654   0.657  0.00  0.00    +0.000 C 
ATOM     45  C   UNK     0     -19.321  16.186   1.055  0.00  0.00    +0.000 C 
ATOM     48  O   UNK     0     -21.601  20.352  -0.207  0.00  0.00    +0.000 OA
ATOM     52  C   UNK     0     -11.747  12.863   0.300  0.00  0.00    +0.000 C 
ENDROOT
BRANCH  36  46
ATOM     46  N   UNK     0     -22.048  12.414   3.664  0.00  0.00    +0.000 N 
ATOM     50  C   UNK     0     -22.649  12.442   5.081  0.00  0.00    +0.000 C 
ATOM     51  C   UNK     0     -23.100  11.698   2.797  0.00  0.00    +0.000 C 
ENDBRANCH  36  46
BRANCH  41  47
ATOM     47  O   UNK     0     -20.830  16.797   1.229  0.00  0.00    +0.000 OA
ATOM     49  C   UNK     0     -22.146  16.289   1.847  0.00  0.00    +0.000 C 
ENDBRANCH  41  47
TORSDOF 2
ENDMDL
MODEL 8
REMARK VINA RESULT:      -4.3     43.162     48.006
REMARK  Name = 
REMARK  2 active torsions:
REMARK  status: ('A' for Active; 'I' for Inactive)
REMARK    1  A    between atoms: C_36  and  N_46
REMARK    2  A    between atoms: C_41  and  O_47
REMARK                            x       y       z     vdW  Elec       q    Type
REMARK                         _______ _______ _______ _____ _____    ______ ____
ROOT
ATOM      1  N   UNK     0     -44.409  15.782 -26.185  0.00  0.00    +0.000 N 
ATOM      2  C   UNK     0     -43.607  13.700 -27.871  0.00  0.00    +0.000 C 
ATOM      3  C   UNK     0     -43.347  16.556 -25.383  0.00  0.00    +0.000 C 
ATOM      4  C   UNK     0     -42.119  13.325 -28.002  0.00  0.00    +0.000 C 
ATOM      5  C   UNK     0     -41.056  14.099 -27.200  0.00  0.00    +0.000 C 
ATOM      6  C   UNK     0     -39.715  13.449 -27.586  0.00  0.00    +0.000 C 
ATOM      7  C   UNK     0     -38.242  13.679 -27.199  0.00  0.00    +0.000 C 
ATOM      8  C   UNK     0     -37.501  14.654 -26.265  0.00  0.00    +0.000 C 
ATOM      9  C   UNK     0     -36.028  14.884 -25.878  0.00  0.00    +0.000 C 
ATOM     10  C   UNK     0     -35.660  15.995 -24.876  0.00  0.00    +0.000 C 
ATOM     11  C   UNK     0     -36.764  16.875 -24.262  0.00  0.00    +0.000 C 
ATOM     12  O   UNK     0     -38.237  16.645 -24.649  0.00  0.00    +0.000 OA
ATOM     13  C   UNK     0     -39.341  17.525 -24.035  0.00  0.00    +0.000 C 
ATOM     14  C   UNK     0     -40.814  17.295 -24.422  0.00  0.00    +0.000 C 
ATOM     15  C   UNK     0     -41.555  16.320 -25.356  0.00  0.00    +0.000 C 
ATOM     16  C   UNK     0     -45.881  15.552 -26.572  0.00  0.00    +0.000 C 
ATOM     17  C   UNK     0     -44.138  17.607 -24.582  0.00  0.00    +0.000 C 
ATOM     18  O   UNK     0     -40.763  15.270 -26.156  0.00  0.00    +0.000 OA
ATOM     19  O   UNK     0     -41.918  18.176 -23.808  0.00  0.00    +0.000 OA
ATOM     20  C   UNK     0     -34.187  16.225 -24.489  0.00  0.00    +0.000 C 
ATOM     21  O   UNK     0     -39.685  12.280 -28.587  0.00  0.00    +0.000 OA
ATOM     22  C   UNK     0     -42.090  12.156 -29.003  0.00  0.00    +0.000 C 
ATOM     23  C   UNK     0     -38.610  12.568 -28.200  0.00  0.00    +0.000 C 
ATOM     24  C   UNK     0     -40.445  18.406 -23.421  0.00  0.00    +0.000 C 
ATOM     25  C   UNK     0     -38.973  18.636 -23.033  0.00  0.00    +0.000 C 
ATOM     26  O   UNK     0     -32.463  13.779 -26.369  0.00  0.00    +0.000 OA
ATOM     27  O   UNK     0     -36.346  11.402 -28.910  0.00  0.00    +0.000 OA
ATOM     28  O   UNK     0     -36.396  17.985 -23.261  0.00  0.00    +0.000 OA
ATOM     29  C   UNK     0     -39.398  19.785 -22.100  0.00  0.00    +0.000 C 
ATOM     30  C   UNK     0     -30.990  14.009 -25.981  0.00  0.00    +0.000 C 
ATOM     31  C   UNK     0     -34.433   9.878 -29.974  0.00  0.00    +0.000 C 
ATOM     32  C   UNK     0     -34.858  11.027 -29.041  0.00  0.00    +0.000 C 
ATOM     33  O   UNK     0     -33.795  11.801 -28.240  0.00  0.00    +0.000 OA
ATOM     34  C   UNK     0     -32.307  11.426 -28.370  0.00  0.00    +0.000 C 
ATOM     35  C   UNK     0     -31.883  10.277 -29.303  0.00  0.00    +0.000 C 
ATOM     36  C   UNK     0     -32.946   9.502 -30.105  0.00  0.00    +0.000 C 
ATOM     37  C   UNK     0     -30.565  12.859 -26.914  0.00  0.00    +0.000 C 
ATOM     38  O   UNK     0     -29.927  14.783 -25.180  0.00  0.00    +0.000 OA
ATOM     39  C   UNK     0     -28.440  14.407 -25.311  0.00  0.00    +0.000 C 
ATOM     40  C   UNK     0     -28.015  13.258 -26.244  0.00  0.00    +0.000 C 
ATOM     41  C   UNK     0     -29.077  12.484 -27.045  0.00  0.00    +0.000 C 
ATOM     42  O   UNK     0     -35.174   8.903 -30.907  0.00  0.00    +0.000 OA
ATOM     43  C   UNK     0     -27.699  15.383 -24.377  0.00  0.00    +0.000 C 
ATOM     44  C   UNK     0     -27.736  11.834 -27.431  0.00  0.00    +0.000 C 
ATOM     45  C   UNK     0     -31.244  12.200 -27.568  0.00  0.00    +0.000 C 
ATOM     48  O   UNK     0     -26.527  12.882 -26.375  0.00  0.00    +0.000 OA
ATOM     52  C   UNK     0     -38.605  15.535 -25.651  0.00  0.00    +0.000 C 
ENDROOT
BRANCH  36  46
ATOM     46  N   UNK     0     -32.521   8.353 -31.038  0.00  0.00    +0.000 N 
ATOM     50  C   UNK     0     -32.330   6.834 -30.876  0.00  0.00    +0.000 C 
ATOM     51  C   UNK     0     -32.174   8.644 -32.510  0.00  0.00    +0.000 C 
ENDBRANCH  36  46
BRANCH  41  47
ATOM     47  O   UNK     0     -29.818  11.509 -27.979  0.00  0.00    +0.000 OA
ATOM     49  C   UNK     0     -29.391  10.377 -28.932  0.00  0.00    +0.000 C 
ENDBRANCH  41  47
TORSDOF 2
ENDMDL
MODEL 9
REMARK VINA RESULT:      -4.3     23.376     28.815
REMARK  Name = 
REMARK  2 active torsions:
REMARK  status: ('A' for Active; 'I' for Inactive)
REMARK    1  A    between atoms: C_36  and  N_46
REMARK    2  A    between atoms: C_41  and  O_47
REMARK                            x       y       z     vdW  Elec       q    Type
REMARK                         _______ _______ _______ _____ _____    ______ ____
ROOT
ATOM      1  N   UNK     0      -8.105   6.515  -1.259  0.00  0.00    +0.000 N 
ATOM      2  C   UNK     0      -7.448   4.166  -2.626  0.00  0.00    +0.000 C 
ATOM      3  C   UNK     0      -9.463   6.615  -0.539  0.00  0.00    +0.000 C 
ATOM      4  C   UNK     0      -8.429   2.979  -2.664  0.00  0.00    +0.000 C 
ATOM      5  C   UNK     0      -9.786   3.079  -1.944  0.00  0.00    +0.000 C 
ATOM      6  C   UNK     0     -10.474   1.725  -2.201  0.00  0.00    +0.000 C 
ATOM      7  C   UNK     0     -11.824   1.098  -1.808  0.00  0.00    +0.000 C 
ATOM      8  C   UNK     0     -13.046   1.564  -0.993  0.00  0.00    +0.000 C 
ATOM      9  C   UNK     0     -14.396   0.936  -0.600  0.00  0.00    +0.000 C 
ATOM     10  C   UNK     0     -15.398   1.737   0.253  0.00  0.00    +0.000 C 
ATOM     11  C   UNK     0     -15.049   3.164   0.712  0.00  0.00    +0.000 C 
ATOM     12  O   UNK     0     -13.699   3.792   0.318  0.00  0.00    +0.000 OA
ATOM     13  C   UNK     0     -13.351   5.220   0.778  0.00  0.00    +0.000 C 
ATOM     14  C   UNK     0     -12.001   5.848   0.384  0.00  0.00    +0.000 C 
ATOM     15  C   UNK     0     -10.779   5.382  -0.430  0.00  0.00    +0.000 C 
ATOM     16  C   UNK     0      -6.755   7.143  -1.653  0.00  0.00    +0.000 C 
ATOM     17  C   UNK     0      -9.478   8.021   0.091  0.00  0.00    +0.000 C 
ATOM     18  O   UNK     0     -10.765   3.977  -1.060  0.00  0.00    +0.000 OA
ATOM     19  O   UNK     0     -11.653   7.276   0.843  0.00  0.00    +0.000 OA
ATOM     20  C   UNK     0     -16.748   1.109   0.647  0.00  0.00    +0.000 C 
ATOM     21  O   UNK     0      -9.761   0.645  -3.034  0.00  0.00    +0.000 OA
ATOM     22  C   UNK     0      -7.715   1.899  -3.497  0.00  0.00    +0.000 C 
ATOM     23  C   UNK     0     -10.822   0.297  -2.661  0.00  0.00    +0.000 C 
ATOM     24  C   UNK     0     -13.003   6.649   1.237  0.00  0.00    +0.000 C 
ATOM     25  C   UNK     0     -14.353   6.021   1.631  0.00  0.00    +0.000 C 
ATOM     26  O   UNK     0     -16.616  -2.096  -0.838  0.00  0.00    +0.000 OA
ATOM     27  O   UNK     0     -11.940  -2.050  -3.144  0.00  0.00    +0.000 OA
ATOM     28  O   UNK     0     -16.051   3.965   1.565  0.00  0.00    +0.000 OA
ATOM     29  C   UNK     0     -14.730   7.308   2.388  0.00  0.00    +0.000 C 
ATOM     30  C   UNK     0     -17.966  -2.723  -0.444  0.00  0.00    +0.000 C 
ATOM     31  C   UNK     0     -12.544  -4.524  -3.939  0.00  0.00    +0.000 C 
ATOM     32  C   UNK     0     -12.921  -3.237  -3.181  0.00  0.00    +0.000 C 
ATOM     33  O   UNK     0     -14.278  -3.137  -2.462  0.00  0.00    +0.000 OA
ATOM     34  C   UNK     0     -15.259  -4.324  -2.499  0.00  0.00    +0.000 C 
ATOM     35  C   UNK     0     -14.882  -5.610  -3.256  0.00  0.00    +0.000 C 
ATOM     36  C   UNK     0     -13.524  -5.711  -3.977  0.00  0.00    +0.000 C 
ATOM     37  C   UNK     0     -17.589  -4.010  -1.201  0.00  0.00    +0.000 C 
ATOM     38  O   UNK     0     -19.324  -2.624   0.276  0.00  0.00    +0.000 OA
ATOM     39  C   UNK     0     -20.304  -3.810   0.238  0.00  0.00    +0.000 C 
ATOM     40  C   UNK     0     -19.927  -5.097  -0.519  0.00  0.00    +0.000 C 
ATOM     41  C   UNK     0     -18.569  -5.197  -1.239  0.00  0.00    +0.000 C 
ATOM     42  O   UNK     0     -11.322  -4.989  -4.752  0.00  0.00    +0.000 OA
ATOM     43  C   UNK     0     -21.525  -3.344   1.052  0.00  0.00    +0.000 C 
ATOM     44  C   UNK     0     -19.257  -6.551  -1.496  0.00  0.00    +0.000 C 
ATOM     45  C   UNK     0     -16.617  -4.224  -1.779  0.00  0.00    +0.000 C 
ATOM     48  O   UNK     0     -20.907  -6.284  -0.557  0.00  0.00    +0.000 OA
ATOM     52  C   UNK     0     -12.698   2.992  -0.534  0.00  0.00    +0.000 C 
ENDROOT
BRANCH  36  46
ATOM     46  N   UNK     0     -13.146  -6.997  -4.734  0.00  0.00    +0.000 N 
ATOM     50  C   UNK     0     -12.414  -8.301  -4.367  0.00  0.00    +0.000 C 
ATOM     51  C   UNK     0     -13.528  -7.158  -6.218  0.00  0.00    +0.000 C 
ENDBRANCH  36  46
BRANCH  41  47
ATOM     47  O   UNK     0     -17.348  -5.663  -2.053  0.00  0.00    +0.000 OA
ATOM     49  C   UNK     0     -16.935  -6.977  -2.741  0.00  0.00    +0.000 C 
ENDBRANCH  41  47
TORSDOF 2
ENDMDL
