REMARK  Name = 
REMARK  2 active torsions:
REMARK  status: ('A' for Active; 'I' for Inactive)
REMARK    1  A    between atoms: C_36  and  N_46
REMARK    2  A    between atoms: C_41  and  O_47
REMARK                            x       y       z     vdW  Elec       q    Type
REMARK                         _______ _______ _______ _____ _____    ______ ____
ROOT
ATOM      1  N   UNK     0      -6.096   5.092   0.000  0.00  0.00    +0.000 N 
ATOM      2  C   UNK     0      -3.300   5.060   0.000  0.00  0.00    +0.000 C 
ATOM      3  C   UNK     0      -6.866   3.759   0.000  0.00  0.00    +0.000 C 
ATOM      4  C   UNK     0      -2.530   3.726   0.000  0.00  0.00    +0.000 C 
ATOM      5  C   UNK     0      -3.300   2.393   0.000  0.00  0.00    +0.000 C 
ATOM      6  C   UNK     0      -2.211   1.304   0.000  0.00  0.00    +0.000 C 
ATOM      7  C   UNK     0      -2.211  -0.236   0.000  0.00  0.00    +0.000 C 
ATOM      8  C   UNK     0      -3.300  -1.325   0.000  0.00  0.00    +0.000 C 
ATOM      9  C   UNK     0      -3.300  -2.865   0.000  0.00  0.00    +0.000 C 
ATOM     10  C   UNK     0      -4.634  -3.635   0.000  0.00  0.00    +0.000 C 
ATOM     11  C   UNK     0      -5.967  -2.865   0.000  0.00  0.00    +0.000 C 
ATOM     12  O   UNK     0      -5.967  -1.325   0.000  0.00  0.00    +0.000 OA
ATOM     13  C   UNK     0      -7.301  -0.555   0.000  0.00  0.00    +0.000 C 
ATOM     14  C   UNK     0      -7.301   0.985   0.000  0.00  0.00    +0.000 C 
ATOM     15  C   UNK     0      -6.212   2.074   0.000  0.00  0.00    +0.000 C 
ATOM     16  C   UNK     0      -6.096   6.632   0.000  0.00  0.00    +0.000 C 
ATOM     17  C   UNK     0      -8.354   4.157   0.000  0.00  0.00    +0.000 C 
ATOM     18  O   UNK     0      -4.725   1.675   0.000  0.00  0.00    +0.000 OA
ATOM     19  O   UNK     0      -8.635   1.755   0.000  0.00  0.00    +0.000 OA
ATOM     20  C   UNK     0      -4.634  -5.175   0.000  0.00  0.00    +0.000 C 
ATOM     21  O   UNK     0      -0.724   1.702   0.000  0.00  0.00    +0.000 OA
ATOM     22  C   UNK     0      -1.043   4.125   0.000  0.00  0.00    +0.000 C 
ATOM     23  C   UNK     0      -0.877   0.534   0.000  0.00  0.00    +0.000 C 
ATOM     24  C   UNK     0      -8.635   0.215   0.000  0.00  0.00    +0.000 C 
ATOM     25  C   UNK     0      -8.635  -1.325   0.000  0.00  0.00    +0.000 C 
ATOM     26  O   UNK     0      -1.194  -5.986   0.000  0.00  0.00    +0.000 OA
ATOM     27  O   UNK     0       1.048  -1.279   0.000  0.00  0.00    +0.000 OA
ATOM     28  O   UNK     0      -7.301  -3.635   0.000  0.00  0.00    +0.000 OA
ATOM     29  C   UNK     0     -10.175  -1.325   0.000  0.00  0.00    +0.000 C 
ATOM     30  C   UNK     0      -1.194  -7.526   0.000  0.00  0.00    +0.000 C 
ATOM     31  C   UNK     0       3.358  -2.613   0.000  0.00  0.00    +0.000 C 
ATOM     32  C   UNK     0       1.818  -2.613   0.000  0.00  0.00    +0.000 C 
ATOM     33  O   UNK     0       1.048  -3.946   0.000  0.00  0.00    +0.000 OA
ATOM     34  C   UNK     0       1.817  -5.280   0.000  0.00  0.00    +0.000 C 
ATOM     35  C   UNK     0       3.357  -5.280   0.000  0.00  0.00    +0.000 C 
ATOM     36  C   UNK     0       4.128  -3.946   0.000  0.00  0.00    +0.000 C 
ATOM     37  C   UNK     0       0.346  -7.526   0.000  0.00  0.00    +0.000 C 
ATOM     38  O   UNK     0      -1.964  -8.860   0.000  0.00  0.00    +0.000 OA
ATOM     39  C   UNK     0      -1.194 -10.193   0.000  0.00  0.00    +0.000 C 
ATOM     40  C   UNK     0       0.346 -10.193   0.000  0.00  0.00    +0.000 C 
ATOM     41  C   UNK     0       1.116  -8.860   0.000  0.00  0.00    +0.000 C 
ATOM     42  O   UNK     0       4.446  -1.524   0.000  0.00  0.00    +0.000 OA
ATOM     43  C   UNK     0      -2.283 -11.282   0.000  0.00  0.00    +0.000 C 
ATOM     44  C   UNK     0       2.205  -9.949   0.000  0.00  0.00    +0.000 C 
ATOM     45  C   UNK     0       1.047  -6.614   0.000  0.00  0.00    +0.000 C 
ATOM     48  O   UNK     0       1.116 -11.527   0.000  0.00  0.00    +0.000 OA
ATOM     52  C   UNK     0      -4.634  -0.555   0.000  0.00  0.00    +0.000 C 
ENDROOT
BRANCH  36  46
ATOM     46  N   UNK     0       5.668  -3.946   0.000  0.00  0.00    +0.000 N 
ATOM     50  C   UNK     0       6.756  -2.857   0.000  0.00  0.00    +0.000 C 
ATOM     51  C   UNK     0       6.438  -5.280   0.000  0.00  0.00    +0.000 C 
ENDBRANCH  36  46
BRANCH  41  47
ATOM     47  O   UNK     0       2.205  -7.771   0.000  0.00  0.00    +0.000 OA
ATOM     49  C   UNK     0       3.745  -7.771   0.000  0.00  0.00    +0.000 C 
ENDBRANCH  41  47
TORSDOF 2
