MODEL 1
REMARK VINA RESULT:      -3.7      0.000      0.000
REMARK  Name = C:\Users\samar\iffplatform1\src\activity\accessor\component\dao\Nitintest\hydroxychloroquine.pdb
REMARK  6 active torsions:
REMARK  status: ('A' for Active; 'I' for Inactive)
REMARK    1  A    between atoms: N_3  and  C_9
REMARK    2  A    between atoms: N_3  and  C_10
REMARK    3  A    between atoms: N_3  and  C_12
REMARK    4  A    between atoms: N_4  and  C_13
REMARK    5  A    between atoms: C_6  and  C_8
REMARK    6  A    between atoms: C_7  and  C_9
REMARK                            x       y       z     vdW  Elec       q    Type
REMARK                         _______ _______ _______ _____ _____    ______ ____
ROOT
ATOM      4  N   UNK     0     -21.039  20.806  37.357  0.00  0.00    +0.000 NA
ATOM      8  C   UNK     0     -22.417  20.765  36.672  0.00  0.00    +0.000 C 
ATOM     11  C   UNK     0     -23.509  21.772  37.080  0.00  0.00    +0.000 C 
ENDROOT
BRANCH   4  13
ATOM      1 Cl   UNK     0     -20.368  20.074  44.447  0.00  0.00    +0.000 Cl
ATOM      5  N   UNK     0     -20.179  23.946  40.635  0.00  0.00    +0.000 NA
ATOM     13  C   UNK     0     -20.752  21.853  38.450  0.00  0.00    +0.000 A 
ATOM     16  C   UNK     0     -20.657  21.420  39.925  0.00  0.00    +0.000 A 
ATOM     17  C   UNK     0     -20.561  23.332  38.068  0.00  0.00    +0.000 A 
ATOM     18  C   UNK     0     -20.370  22.467  41.017  0.00  0.00    +0.000 A 
ATOM     19  C   UNK     0     -20.860  19.873  40.300  0.00  0.00    +0.000 A 
ATOM     20  C   UNK     0     -20.274  24.378  39.160  0.00  0.00    +0.000 A 
ATOM     21  C   UNK     0     -20.267  22.039  42.560  0.00  0.00    +0.000 A 
ATOM     22  C   UNK     0     -20.763  19.411  41.832  0.00  0.00    +0.000 A 
ATOM     23  C   UNK     0     -20.465  20.501  42.970  0.00  0.00    +0.000 A 
ENDBRANCH   4  13
BRANCH   8   6
ATOM      6  C   UNK     0     -22.704  19.719  35.580  0.00  0.00    +0.000 C 
ATOM      7  C   UNK     0     -21.541  19.104  34.778  0.00  0.00    +0.000 C 
BRANCH   7   9
ATOM      9  C   UNK     0     -21.828  18.057  33.686  0.00  0.00    +0.000 C 
BRANCH   9   3
ATOM      3  N   UNK     0     -22.573  18.468  32.402  0.00  0.00    +0.000 N 
BRANCH   3  10
ATOM      2  O   UNK     0     -20.014  20.679  30.129  0.00  0.00    +0.000 OA
ATOM     10  C   UNK     0     -21.782  18.985  31.185  0.00  0.00    +0.000 C 
ATOM     14  C   UNK     0     -20.804  20.163  31.346  0.00  0.00    +0.000 C 
ENDBRANCH   3  10
BRANCH   3  12
ATOM     12  C   UNK     0     -24.107  18.363  32.335  0.00  0.00    +0.000 C 
ATOM     15  C   UNK     0     -24.861  18.881  31.096  0.00  0.00    +0.000 C 
ENDBRANCH   3  12
ENDBRANCH   9   3
ENDBRANCH   7   9
ENDBRANCH   8   6
TORSDOF 6
ENDMDL
MODEL 2
REMARK VINA RESULT:      -3.6     59.845     63.292
REMARK  Name = C:\Users\samar\iffplatform1\src\activity\accessor\component\dao\Nitintest\hydroxychloroquine.pdb
REMARK  6 active torsions:
REMARK  status: ('A' for Active; 'I' for Inactive)
REMARK    1  A    between atoms: N_3  and  C_9
REMARK    2  A    between atoms: N_3  and  C_10
REMARK    3  A    between atoms: N_3  and  C_12
REMARK    4  A    between atoms: N_4  and  C_13
REMARK    5  A    between atoms: C_6  and  C_8
REMARK    6  A    between atoms: C_7  and  C_9
REMARK                            x       y       z     vdW  Elec       q    Type
REMARK                         _______ _______ _______ _____ _____    ______ ____
ROOT
ATOM      4  N   UNK     0     -17.479   3.730 -23.269  0.00  0.00    +0.000 NA
ATOM      8  C   UNK     0     -16.020   3.360 -23.589  0.00  0.00    +0.000 C 
ATOM     11  C   UNK     0     -14.870   4.249 -23.080  0.00  0.00    +0.000 C 
ENDROOT
BRANCH   4  13
ATOM      1 Cl   UNK     0     -17.930  10.602 -25.224  0.00  0.00    +0.000 Cl
ATOM      5  N   UNK     0     -18.411   7.509 -20.779  0.00  0.00    +0.000 NA
ATOM     13  C   UNK     0     -17.790   4.990 -22.439  0.00  0.00    +0.000 A 
ATOM     16  C   UNK     0     -17.825   6.371 -23.119  0.00  0.00    +0.000 A 
ATOM     17  C   UNK     0     -18.065   4.868 -20.929  0.00  0.00    +0.000 A 
ATOM     18  C   UNK     0     -18.136   7.631 -22.289  0.00  0.00    +0.000 A 
ATOM     19  C   UNK     0     -17.536   6.474 -24.694  0.00  0.00    +0.000 A 
ATOM     20  C   UNK     0     -18.375   6.128 -20.099  0.00  0.00    +0.000 A 
ATOM     21  C   UNK     0     -18.178   9.079 -22.977  0.00  0.00    +0.000 A 
ATOM     22  C   UNK     0     -17.570   7.907 -25.413  0.00  0.00    +0.000 A 
ATOM     23  C   UNK     0     -17.893   9.218 -24.549  0.00  0.00    +0.000 A 
ENDBRANCH   4  13
BRANCH   8   6
ATOM      6  C   UNK     0     -15.709   2.100 -24.419  0.00  0.00    +0.000 C 
ATOM      7  C   UNK     0     -15.308   0.792 -23.713  0.00  0.00    +0.000 C 
BRANCH   7   9
ATOM      9  C   UNK     0     -14.998  -0.468 -24.543  0.00  0.00    +0.000 C 
BRANCH   9   3
ATOM      3  N   UNK     0     -14.357  -1.695 -23.869  0.00  0.00    +0.000 N 
BRANCH   3  10
ATOM      2  O   UNK     0     -10.370  -2.181 -24.551  0.00  0.00    +0.000 OA
ATOM     10  C   UNK     0     -13.032  -2.265 -24.407  0.00  0.00    +0.000 C 
ATOM     14  C   UNK     0     -11.695  -1.611 -24.012  0.00  0.00    +0.000 C 
ENDBRANCH   3  10
BRANCH   3  12
ATOM     12  C   UNK     0     -15.042  -2.353 -22.656  0.00  0.00    +0.000 C 
ATOM     15  C   UNK     0     -14.765  -1.825 -21.236  0.00  0.00    +0.000 C 
ENDBRANCH   3  12
ENDBRANCH   9   3
ENDBRANCH   7   9
ENDBRANCH   8   6
TORSDOF 6
ENDMDL
MODEL 3
REMARK VINA RESULT:      -3.6     59.967     63.600
REMARK  Name = C:\Users\samar\iffplatform1\src\activity\accessor\component\dao\Nitintest\hydroxychloroquine.pdb
REMARK  6 active torsions:
REMARK  status: ('A' for Active; 'I' for Inactive)
REMARK    1  A    between atoms: N_3  and  C_9
REMARK    2  A    between atoms: N_3  and  C_10
REMARK    3  A    between atoms: N_3  and  C_12
REMARK    4  A    between atoms: N_4  and  C_13
REMARK    5  A    between atoms: C_6  and  C_8
REMARK    6  A    between atoms: C_7  and  C_9
REMARK                            x       y       z     vdW  Elec       q    Type
REMARK                         _______ _______ _______ _____ _____    ______ ____
ROOT
ATOM      4  N   UNK     0     -17.182   3.638 -23.116  0.00  0.00    +0.000 NA
ATOM      8  C   UNK     0     -15.693   3.309 -23.320  0.00  0.00    +0.000 C 
ATOM     11  C   UNK     0     -14.612   4.246 -22.748  0.00  0.00    +0.000 C 
ENDROOT
BRANCH   4  13
ATOM      1 Cl   UNK     0     -17.985  10.398 -25.331  0.00  0.00    +0.000 Cl
ATOM      5  N   UNK     0     -18.413   7.437 -20.792  0.00  0.00    +0.000 NA
ATOM     13  C   UNK     0     -17.593   4.904 -22.341  0.00  0.00    +0.000 A 
ATOM     16  C   UNK     0     -17.690   6.257 -23.072  0.00  0.00    +0.000 A 
ATOM     17  C   UNK     0     -17.905   4.819 -20.836  0.00  0.00    +0.000 A 
ATOM     18  C   UNK     0     -18.101   7.523 -22.298  0.00  0.00    +0.000 A 
ATOM     19  C   UNK     0     -17.360   6.322 -24.641  0.00  0.00    +0.000 A 
ATOM     20  C   UNK     0     -18.315   6.085 -20.062  0.00  0.00    +0.000 A 
ATOM     21  C   UNK     0     -18.209   8.942 -23.038  0.00  0.00    +0.000 A 
ATOM     22  C   UNK     0     -17.459   7.725 -25.412  0.00  0.00    +0.000 A 
ATOM     23  C   UNK     0     -17.886   9.043 -24.605  0.00  0.00    +0.000 A 
ENDBRANCH   4  13
BRANCH   8   6
ATOM      6  C   UNK     0     -15.282   2.043 -24.094  0.00  0.00    +0.000 C 
ATOM      7  C   UNK     0     -15.975   0.700 -23.797  0.00  0.00    +0.000 C 
BRANCH   7   9
ATOM      9  C   UNK     0     -15.565  -0.567 -24.572  0.00  0.00    +0.000 C 
BRANCH   9   3
ATOM      3  N   UNK     0     -14.230  -1.265 -24.254  0.00  0.00    +0.000 N 
BRANCH   3  10
ATOM      2  O   UNK     0     -13.181  -3.017 -27.780  0.00  0.00    +0.000 OA
ATOM     10  C   UNK     0     -13.622  -2.259 -25.261  0.00  0.00    +0.000 C 
ATOM     14  C   UNK     0     -13.788  -2.022 -26.773  0.00  0.00    +0.000 C 
ENDBRANCH   3  10
BRANCH   3  12
ATOM     12  C   UNK     0     -13.502  -0.969 -22.930  0.00  0.00    +0.000 C 
ATOM     15  C   UNK     0     -12.017  -0.559 -22.942  0.00  0.00    +0.000 C 
ENDBRANCH   3  12
ENDBRANCH   9   3
ENDBRANCH   7   9
ENDBRANCH   8   6
TORSDOF 6
ENDMDL
MODEL 4
REMARK VINA RESULT:      -3.6      2.539      3.909
REMARK  Name = C:\Users\samar\iffplatform1\src\activity\accessor\component\dao\Nitintest\hydroxychloroquine.pdb
REMARK  6 active torsions:
REMARK  status: ('A' for Active; 'I' for Inactive)
REMARK    1  A    between atoms: N_3  and  C_9
REMARK    2  A    between atoms: N_3  and  C_10
REMARK    3  A    between atoms: N_3  and  C_12
REMARK    4  A    between atoms: N_4  and  C_13
REMARK    5  A    between atoms: C_6  and  C_8
REMARK    6  A    between atoms: C_7  and  C_9
REMARK                            x       y       z     vdW  Elec       q    Type
REMARK                         _______ _______ _______ _____ _____    ______ ____
ROOT
ATOM      4  N   UNK     0     -20.854  20.623  37.477  0.00  0.00    +0.000 NA
ATOM      8  C   UNK     0     -22.145  20.687  36.641  0.00  0.00    +0.000 C 
ATOM     11  C   UNK     0     -23.356  21.489  37.154  0.00  0.00    +0.000 C 
ENDROOT
BRANCH   4  13
ATOM      1 Cl   UNK     0     -19.709  27.536  38.945  0.00  0.00    +0.000 Cl
ATOM      5  N   UNK     0     -20.610  22.835  41.525  0.00  0.00    +0.000 NA
ATOM     13  C   UNK     0     -20.772  21.360  38.826  0.00  0.00    +0.000 A 
ATOM     16  C   UNK     0     -20.511  22.878  38.860  0.00  0.00    +0.000 A 
ATOM     17  C   UNK     0     -20.952  20.581  40.141  0.00  0.00    +0.000 A 
ATOM     18  C   UNK     0     -20.430  23.615  40.209  0.00  0.00    +0.000 A 
ATOM     19  C   UNK     0     -20.327  23.670  37.477  0.00  0.00    +0.000 A 
ATOM     20  C   UNK     0     -20.871  21.319  41.491  0.00  0.00    +0.000 A 
ATOM     21  C   UNK     0     -20.159  25.195  40.269  0.00  0.00    +0.000 A 
ATOM     22  C   UNK     0     -20.054  25.250  37.500  0.00  0.00    +0.000 A 
ATOM     23  C   UNK     0     -19.970  26.018  38.905  0.00  0.00    +0.000 A 
ENDBRANCH   4  13
BRANCH   8   6
ATOM      6  C   UNK     0     -22.226  19.949  35.291  0.00  0.00    +0.000 C 
ATOM      7  C   UNK     0     -21.745  18.490  35.181  0.00  0.00    +0.000 C 
BRANCH   7   9
ATOM      9  C   UNK     0     -21.826  17.753  33.831  0.00  0.00    +0.000 C 
BRANCH   9   3
ATOM      3  N   UNK     0     -22.500  18.430  32.623  0.00  0.00    +0.000 N 
BRANCH   3  10
ATOM      2  O   UNK     0     -26.233  18.837  31.044  0.00  0.00    +0.000 OA
ATOM     10  C   UNK     0     -24.035  18.431  32.498  0.00  0.00    +0.000 C 
ATOM     14  C   UNK     0     -24.699  18.836  31.169  0.00  0.00    +0.000 C 
ENDBRANCH   3  10
BRANCH   3  12
ATOM     12  C   UNK     0     -21.639  19.107  31.541  0.00  0.00    +0.000 C 
ATOM     15  C   UNK     0     -21.316  20.610  31.642  0.00  0.00    +0.000 C 
ENDBRANCH   3  12
ENDBRANCH   9   3
ENDBRANCH   7   9
ENDBRANCH   8   6
TORSDOF 6
ENDMDL
MODEL 5
REMARK VINA RESULT:      -3.5     18.805     22.778
REMARK  Name = C:\Users\samar\iffplatform1\src\activity\accessor\component\dao\Nitintest\hydroxychloroquine.pdb
REMARK  6 active torsions:
REMARK  status: ('A' for Active; 'I' for Inactive)
REMARK    1  A    between atoms: N_3  and  C_9
REMARK    2  A    between atoms: N_3  and  C_10
REMARK    3  A    between atoms: N_3  and  C_12
REMARK    4  A    between atoms: N_4  and  C_13
REMARK    5  A    between atoms: C_6  and  C_8
REMARK    6  A    between atoms: C_7  and  C_9
REMARK                            x       y       z     vdW  Elec       q    Type
REMARK                         _______ _______ _______ _____ _____    ______ ____
ROOT
ATOM      4  N   UNK     0     -33.788   9.945  21.045  0.00  0.00    +0.000 NA
ATOM      8  C   UNK     0     -33.078   8.670  20.556  0.00  0.00    +0.000 C 
ATOM     11  C   UNK     0     -32.783   7.526  21.544  0.00  0.00    +0.000 C 
ENDROOT
BRANCH   4  13
ATOM      1 Cl   UNK     0     -30.241  12.606  26.665  0.00  0.00    +0.000 Cl
ATOM      5  N   UNK     0     -35.038  10.340  25.475  0.00  0.00    +0.000 NA
ATOM     13  C   UNK     0     -34.205  10.077  22.521  0.00  0.00    +0.000 A 
ATOM     16  C   UNK     0     -33.234  10.698  23.543  0.00  0.00    +0.000 A 
ATOM     17  C   UNK     0     -35.592   9.588  22.977  0.00  0.00    +0.000 A 
ATOM     18  C   UNK     0     -33.650  10.829  25.020  0.00  0.00    +0.000 A 
ATOM     19  C   UNK     0     -31.793  11.201  23.046  0.00  0.00    +0.000 A 
ATOM     20  C   UNK     0     -36.008   9.719  24.453  0.00  0.00    +0.000 A 
ATOM     21  C   UNK     0     -32.655  11.473  26.101  0.00  0.00    +0.000 A 
ATOM     22  C   UNK     0     -30.774  11.849  24.101  0.00  0.00    +0.000 A 
ATOM     23  C   UNK     0     -31.208  11.986  25.639  0.00  0.00    +0.000 A 
ENDBRANCH   4  13
BRANCH   8   6
ATOM      6  C   UNK     0     -32.661   8.539  19.079  0.00  0.00    +0.000 C 
ATOM      7  C   UNK     0     -33.618   9.002  17.965  0.00  0.00    +0.000 C 
BRANCH   7   9
ATOM      9  C   UNK     0     -33.202   8.871  16.488  0.00  0.00    +0.000 C 
BRANCH   9   3
ATOM      3  N   UNK     0     -32.617  10.085  15.742  0.00  0.00    +0.000 N 
BRANCH   3  10
ATOM      2  O   UNK     0     -32.324  11.263  11.852  0.00  0.00    +0.000 OA
ATOM     10  C   UNK     0     -32.974  10.324  14.263  0.00  0.00    +0.000 C 
ATOM     14  C   UNK     0     -31.967  11.023  13.331  0.00  0.00    +0.000 C 
ENDBRANCH   3  10
BRANCH   3  12
ATOM     12  C   UNK     0     -31.676  11.058  16.474  0.00  0.00    +0.000 C 
ATOM     15  C   UNK     0     -30.297  10.576  16.961  0.00  0.00    +0.000 C 
ENDBRANCH   3  12
ENDBRANCH   9   3
ENDBRANCH   7   9
ENDBRANCH   8   6
TORSDOF 6
ENDMDL
MODEL 6
REMARK VINA RESULT:      -3.4     58.691     60.799
REMARK  Name = C:\Users\samar\iffplatform1\src\activity\accessor\component\dao\Nitintest\hydroxychloroquine.pdb
REMARK  6 active torsions:
REMARK  status: ('A' for Active; 'I' for Inactive)
REMARK    1  A    between atoms: N_3  and  C_9
REMARK    2  A    between atoms: N_3  and  C_10
REMARK    3  A    between atoms: N_3  and  C_12
REMARK    4  A    between atoms: N_4  and  C_13
REMARK    5  A    between atoms: C_6  and  C_8
REMARK    6  A    between atoms: C_7  and  C_9
REMARK                            x       y       z     vdW  Elec       q    Type
REMARK                         _______ _______ _______ _____ _____    ______ ____
ROOT
ATOM      4  N   UNK     0     -41.562  38.360 -16.595  0.00  0.00    +0.000 NA
ATOM      8  C   UNK     0     -40.301  37.477 -16.625  0.00  0.00    +0.000 C 
ATOM     11  C   UNK     0     -38.911  38.112 -16.433  0.00  0.00    +0.000 C 
ENDROOT
BRANCH   4  13
ATOM      1 Cl   UNK     0     -40.321  43.657 -21.248  0.00  0.00    +0.000 Cl
ATOM      5  N   UNK     0     -41.176  42.916 -15.930  0.00  0.00    +0.000 NA
ATOM     13  C   UNK     0     -41.433  39.879 -16.373  0.00  0.00    +0.000 A 
ATOM     16  C   UNK     0     -41.160  40.811 -17.569  0.00  0.00    +0.000 A 
ATOM     17  C   UNK     0     -41.578  40.466 -14.957  0.00  0.00    +0.000 A 
ATOM     18  C   UNK     0     -41.031  42.330 -17.347  0.00  0.00    +0.000 A 
ATOM     19  C   UNK     0     -41.013  40.178 -19.035  0.00  0.00    +0.000 A 
ATOM     20  C   UNK     0     -41.449  41.984 -14.736  0.00  0.00    +0.000 A 
ATOM     21  C   UNK     0     -40.747  43.320 -18.577  0.00  0.00    +0.000 A 
ATOM     22  C   UNK     0     -40.728  41.139 -20.287  0.00  0.00    +0.000 A 
ATOM     23  C   UNK     0     -40.594  42.720 -20.057  0.00  0.00    +0.000 A 
ENDBRANCH   4  13
BRANCH   8   6
ATOM      6  C   UNK     0     -40.430  35.959 -16.846  0.00  0.00    +0.000 C 
ATOM      7  C   UNK     0     -41.096  35.421 -18.127  0.00  0.00    +0.000 C 
BRANCH   7   9
ATOM      9  C   UNK     0     -41.224  33.902 -18.349  0.00  0.00    +0.000 C 
BRANCH   9   3
ATOM      3  N   UNK     0     -40.307  32.932 -17.581  0.00  0.00    +0.000 N 
BRANCH   3  10
ATOM      2  O   UNK     0     -37.447  31.070 -19.806  0.00  0.00    +0.000 OA
ATOM     10  C   UNK     0     -38.931  32.553 -18.160  0.00  0.00    +0.000 C 
ATOM     14  C   UNK     0     -38.823  31.449 -19.228  0.00  0.00    +0.000 C 
ENDBRANCH   3  10
BRANCH   3  12
ATOM     12  C   UNK     0     -40.766  32.341 -16.236  0.00  0.00    +0.000 C 
ATOM     15  C   UNK     0     -41.541  31.011 -16.203  0.00  0.00    +0.000 C 
ENDBRANCH   3  12
ENDBRANCH   9   3
ENDBRANCH   7   9
ENDBRANCH   8   6
TORSDOF 6
ENDMDL
MODEL 7
REMARK VINA RESULT:      -3.4     19.024     23.322
REMARK  Name = C:\Users\samar\iffplatform1\src\activity\accessor\component\dao\Nitintest\hydroxychloroquine.pdb
REMARK  6 active torsions:
REMARK  status: ('A' for Active; 'I' for Inactive)
REMARK    1  A    between atoms: N_3  and  C_9
REMARK    2  A    between atoms: N_3  and  C_10
REMARK    3  A    between atoms: N_3  and  C_12
REMARK    4  A    between atoms: N_4  and  C_13
REMARK    5  A    between atoms: C_6  and  C_8
REMARK    6  A    between atoms: C_7  and  C_9
REMARK                            x       y       z     vdW  Elec       q    Type
REMARK                         _______ _______ _______ _____ _____    ______ ____
ROOT
ATOM      4  N   UNK     0     -33.909   9.700  20.531  0.00  0.00    +0.000 NA
ATOM      8  C   UNK     0     -33.673   8.191  20.336  0.00  0.00    +0.000 C 
ATOM     11  C   UNK     0     -33.938   7.214  21.496  0.00  0.00    +0.000 C 
ENDROOT
BRANCH   4  13
ATOM      1 Cl   UNK     0     -30.312  12.486  26.058  0.00  0.00    +0.000 Cl
ATOM      5  N   UNK     0     -35.413  11.297  24.597  0.00  0.00    +0.000 NA
ATOM     13  C   UNK     0     -34.411  10.232  21.886  0.00  0.00    +0.000 A 
ATOM     16  C   UNK     0     -33.407  10.787  22.914  0.00  0.00    +0.000 A 
ATOM     17  C   UNK     0     -35.915  10.210  22.214  0.00  0.00    +0.000 A 
ATOM     18  C   UNK     0     -33.908  11.319  24.270  0.00  0.00    +0.000 A 
ATOM     19  C   UNK     0     -31.844  10.800  22.552  0.00  0.00    +0.000 A 
ATOM     20  C   UNK     0     -36.416  10.742  23.569  0.00  0.00    +0.000 A 
ATOM     21  C   UNK     0     -32.881  11.901  25.356  0.00  0.00    +0.000 A 
ATOM     22  C   UNK     0     -30.790  11.375  23.614  0.00  0.00    +0.000 A 
ATOM     23  C   UNK     0     -31.312  11.930  25.026  0.00  0.00    +0.000 A 
ENDBRANCH   4  13
BRANCH   8   6
ATOM      6  C   UNK     0     -33.172   7.659  18.980  0.00  0.00    +0.000 C 
ATOM      7  C   UNK     0     -34.106   7.673  17.755  0.00  0.00    +0.000 C 
BRANCH   7   9
ATOM      9  C   UNK     0     -33.605   7.140  16.400  0.00  0.00    +0.000 C 
BRANCH   9   3
ATOM      3  N   UNK     0     -33.086   8.121  15.331  0.00  0.00    +0.000 N 
BRANCH   3  10
ATOM      2  O   UNK     0     -31.412  11.559  16.738  0.00  0.00    +0.000 OA
ATOM     10  C   UNK     0     -32.031   9.180  15.705  0.00  0.00    +0.000 C 
ATOM     14  C   UNK     0     -32.466  10.501  16.364  0.00  0.00    +0.000 C 
ENDBRANCH   3  10
BRANCH   3  12
ATOM     12  C   UNK     0     -33.622   8.044  13.890  0.00  0.00    +0.000 C 
ATOM     15  C   UNK     0     -33.797   9.332  13.064  0.00  0.00    +0.000 C 
ENDBRANCH   3  12
ENDBRANCH   9   3
ENDBRANCH   7   9
ENDBRANCH   8   6
TORSDOF 6
ENDMDL
MODEL 8
REMARK VINA RESULT:      -3.4     68.497     70.471
REMARK  Name = C:\Users\samar\iffplatform1\src\activity\accessor\component\dao\Nitintest\hydroxychloroquine.pdb
REMARK  6 active torsions:
REMARK  status: ('A' for Active; 'I' for Inactive)
REMARK    1  A    between atoms: N_3  and  C_9
REMARK    2  A    between atoms: N_3  and  C_10
REMARK    3  A    between atoms: N_3  and  C_12
REMARK    4  A    between atoms: N_4  and  C_13
REMARK    5  A    between atoms: C_6  and  C_8
REMARK    6  A    between atoms: C_7  and  C_9
REMARK                            x       y       z     vdW  Elec       q    Type
REMARK                         _______ _______ _______ _____ _____    ______ ____
ROOT
ATOM      4  N   UNK     0     -29.465   8.871 -30.834  0.00  0.00    +0.000 NA
ATOM      8  C   UNK     0     -28.474   8.234 -31.824  0.00  0.00    +0.000 C 
ATOM     11  C   UNK     0     -28.136   8.951 -33.145  0.00  0.00    +0.000 C 
ENDROOT
BRANCH   4  13
ATOM      1 Cl   UNK     0     -35.176  10.434 -34.857  0.00  0.00    +0.000 Cl
ATOM      5  N   UNK     0     -31.424  12.937 -31.821  0.00  0.00    +0.000 NA
ATOM     13  C   UNK     0     -30.118  10.227 -31.163  0.00  0.00    +0.000 A 
ATOM     16  C   UNK     0     -31.361  10.282 -32.070  0.00  0.00    +0.000 A 
ATOM     17  C   UNK     0     -29.529  11.526 -30.584  0.00  0.00    +0.000 A 
ATOM     18  C   UNK     0     -32.014  11.637 -32.399  0.00  0.00    +0.000 A 
ATOM     19  C   UNK     0     -31.958   8.916 -32.661  0.00  0.00    +0.000 A 
ATOM     20  C   UNK     0     -30.182  12.881 -30.913  0.00  0.00    +0.000 A 
ATOM     21  C   UNK     0     -33.310  11.719 -33.342  0.00  0.00    +0.000 A 
ATOM     22  C   UNK     0     -33.252   8.961 -33.608  0.00  0.00    +0.000 A 
ATOM     23  C   UNK     0     -33.933  10.373 -33.950  0.00  0.00    +0.000 A 
ENDBRANCH   4  13
BRANCH   8   6
ATOM      6  C   UNK     0     -27.821   6.878 -31.495  0.00  0.00    +0.000 C 
ATOM      7  C   UNK     0     -28.143   6.171 -30.166  0.00  0.00    +0.000 C 
BRANCH   7   9
ATOM      9  C   UNK     0     -27.490   4.815 -29.837  0.00  0.00    +0.000 C 
BRANCH   9   3
ATOM      3  N   UNK     0     -25.964   4.646 -29.961  0.00  0.00    +0.000 N 
BRANCH   3  10
ATOM      2  O   UNK     0     -23.252   7.303 -28.484  0.00  0.00    +0.000 OA
ATOM     10  C   UNK     0     -25.026   5.375 -28.981  0.00  0.00    +0.000 C 
ATOM     14  C   UNK     0     -24.190   6.574 -29.464  0.00  0.00    +0.000 C 
ENDBRANCH   3  10
BRANCH   3  12
ATOM     12  C   UNK     0     -25.377   3.747 -31.064  0.00  0.00    +0.000 C 
ATOM     15  C   UNK     0     -25.459   4.184 -32.538  0.00  0.00    +0.000 C 
ENDBRANCH   3  12
ENDBRANCH   9   3
ENDBRANCH   7   9
ENDBRANCH   8   6
TORSDOF 6
ENDMDL
MODEL 9
REMARK VINA RESULT:      -3.4     16.764     21.188
REMARK  Name = C:\Users\samar\iffplatform1\src\activity\accessor\component\dao\Nitintest\hydroxychloroquine.pdb
REMARK  6 active torsions:
REMARK  status: ('A' for Active; 'I' for Inactive)
REMARK    1  A    between atoms: N_3  and  C_9
REMARK    2  A    between atoms: N_3  and  C_10
REMARK    3  A    between atoms: N_3  and  C_12
REMARK    4  A    between atoms: N_4  and  C_13
REMARK    5  A    between atoms: C_6  and  C_8
REMARK    6  A    between atoms: C_7  and  C_9
REMARK                            x       y       z     vdW  Elec       q    Type
REMARK                         _______ _______ _______ _____ _____    ______ ____
ROOT
ATOM      4  N   UNK     0     -32.555  10.242  25.162  0.00  0.00    +0.000 NA
ATOM      8  C   UNK     0     -31.302  11.127  25.037  0.00  0.00    +0.000 C 
ATOM     11  C   UNK     0     -31.415  12.542  24.439  0.00  0.00    +0.000 C 
ENDROOT
BRANCH   4  13
ATOM      1 Cl   UNK     0     -35.681   9.978  18.727  0.00  0.00    +0.000 Cl
ATOM      5  N   UNK     0     -36.656  11.829  23.746  0.00  0.00    +0.000 NA
ATOM     13  C   UNK     0     -33.922  10.771  24.690  0.00  0.00    +0.000 A 
ATOM     16  C   UNK     0     -34.358  10.578  23.225  0.00  0.00    +0.000 A 
ATOM     17  C   UNK     0     -34.853  11.493  25.681  0.00  0.00    +0.000 A 
ATOM     18  C   UNK     0     -35.725  11.107  22.753  0.00  0.00    +0.000 A 
ATOM     19  C   UNK     0     -33.372   9.823  22.210  0.00  0.00    +0.000 A 
ATOM     20  C   UNK     0     -36.220  12.022  25.209  0.00  0.00    +0.000 A 
ATOM     21  C   UNK     0     -36.200  10.918  21.233  0.00  0.00    +0.000 A 
ATOM     22  C   UNK     0     -33.816   9.617  20.683  0.00  0.00    +0.000 A 
ATOM     23  C   UNK     0     -35.240  10.168  20.191  0.00  0.00    +0.000 A 
ENDBRANCH   4  13
BRANCH   8   6
ATOM      6  C   UNK     0     -29.935  10.598  25.509  0.00  0.00    +0.000 C 
ATOM      7  C   UNK     0     -29.864   9.388  26.460  0.00  0.00    +0.000 C 
BRANCH   7   9
ATOM      9  C   UNK     0     -28.497   8.859  26.932  0.00  0.00    +0.000 C 
BRANCH   9   3
ATOM      3  N   UNK     0     -28.260   8.562  28.425  0.00  0.00    +0.000 N 
BRANCH   3  10
ATOM      2  O   UNK     0     -29.243   4.917  29.957  0.00  0.00    +0.000 OA
ATOM     10  C   UNK     0     -28.136   7.106  28.910  0.00  0.00    +0.000 C 
ATOM     14  C   UNK     0     -29.368   6.374  29.471  0.00  0.00    +0.000 C 
ENDBRANCH   3  10
BRANCH   3  12
ATOM     12  C   UNK     0     -28.148   9.722  29.431  0.00  0.00    +0.000 C 
ATOM     15  C   UNK     0     -29.404  10.231  30.163  0.00  0.00    +0.000 C 
ENDBRANCH   3  12
ENDBRANCH   9   3
ENDBRANCH   7   9
ENDBRANCH   8   6
TORSDOF 6
ENDMDL
